/*--------------------------------*- C++ -*----------------------------------*\
  =========                 |
  \\      /  F ield         | OpenFOAM: The Open Source CFD Toolbox
   \\    /   O peration     | Website:  https://openfoam.org
    \\  /    A nd           | Version:  11
     \\/     M anipulation  |
\*---------------------------------------------------------------------------*/
FoamFile
{
    format      binary;
    class       polyBoundaryMesh;
    location    "0.002/polyMesh";
    object      boundary;
}
// * * * * * * * * * * * * * * * * * * * * * * * * * * * * * * * * * * * * * //

5
(
    bottom
    {
        type            wall;
        inGroups        List<word> 1(wall);
        nFaces          200;
        startFace       3222;
    }
    top
    {
        type            wall;
        inGroups        List<word> 1(wall);
        nFaces          200;
        startFace       3422;
    }
    sides
    {
        type            wall;
        inGroups        List<word> 1(wall);
        nFaces          300;
        startFace       3622;
    }
    internal
    {
        type            internal;
        inGroups        List<word> 1(internal);
        nFaces          0;
        startFace       3922;
    }
    procBoundary0to1
    {
        type            processor;
        inGroups        List<word> 1(processor);
        nFaces          68;
        startFace       3922;
        matchTolerance  0.0001;
        myProcNo        0;
        neighbProcNo    1;
    }
)

// ************************************************************************* //
