/*--------------------------------*- C++ -*----------------------------------*\
  =========                 |
  \\      /  F ield         | OpenFOAM: The Open Source CFD Toolbox
   \\    /   O peration     | Website:  https://openfoam.org
    \\  /    A nd           | Version:  10
     \\/     M anipulation  |
\*---------------------------------------------------------------------------*/
FoamFile
{
    format      binary;
    class       polyBoundaryMesh;
    location    "constant/polyMesh";
    object      boundary;
}
// * * * * * * * * * * * * * * * * * * * * * * * * * * * * * * * * * * * * * //

4
(
    bottom
    {
        type            wall;
        inGroups        List<word> 1(wall);
        nFaces          2577;
        startFace       217156;
    }
    top
    {
        type            wall;
        inGroups        List<word> 1(wall);
        nFaces          2403;
        startFace       219733;
    }
    sides
    {
        type            wall;
        inGroups        List<word> 1(wall);
        nFaces          4428;
        startFace       222136;
    }
    procBoundary0to1
    {
        type            processor;
        inGroups        List<word> 1(processor);
        nFaces          1846;
        startFace       226564;
        matchTolerance  0.0001;
        myProcNo        0;
        neighbProcNo    1;
    }
)

// ************************************************************************* //
