/*--------------------------------*- C++ -*----------------------------------*\
  =========                 |
  \\      /  F ield         | OpenFOAM: The Open Source CFD Toolbox
   \\    /   O peration     | Website:  https://openfoam.org
    \\  /    A nd           | Version:  10
     \\/     M anipulation  |
\*---------------------------------------------------------------------------*/
FoamFile
{
    format      binary;
    class       polyBoundaryMesh;
    location    "constant/polyMesh";
    object      boundary;
}
// * * * * * * * * * * * * * * * * * * * * * * * * * * * * * * * * * * * * * //

3
(
    bottom
    {
        type            wall;
        inGroups        List<word> 1(wall);
        nFaces          15000;
        startFace       1324500;
    }
    top
    {
        type            wall;
        inGroups        List<word> 1(wall);
        nFaces          15000;
        startFace       1339500;
    }
    sides
    {
        type            wall;
        inGroups        List<word> 1(wall);
        nFaces          21000;
        startFace       1354500;
    }
)

// ************************************************************************* //
