/*--------------------------------*- C++ -*----------------------------------*\
  =========                 |
  \\      /  F ield         | OpenFOAM: The Open Source CFD Toolbox
   \\    /   O peration     | Website:  https://openfoam.org
    \\  /    A nd           | Version:  11
     \\/     M anipulation  |
\*---------------------------------------------------------------------------*/
FoamFile
{
    format      binary;
    class       polyBoundaryMesh;
    location    "0.003/polyMesh";
    object      boundary;
}
// * * * * * * * * * * * * * * * * * * * * * * * * * * * * * * * * * * * * * //

5
(
    bottom
    {
        type            wall;
        inGroups        List<word> 1(wall);
        nFaces          150;
        startFace       2400;
    }
    top
    {
        type            wall;
        inGroups        List<word> 1(wall);
        nFaces          150;
        startFace       2550;
    }
    sides
    {
        type            wall;
        inGroups        List<word> 1(wall);
        nFaces          240;
        startFace       2700;
    }
    internal
    {
        type            internal;
        inGroups        List<word> 1(internal);
        nFaces          0;
        startFace       2940;
    }
    procBoundary0to2
    {
        type            processor;
        inGroups        List<word> 1(processor);
        nFaces          60;
        startFace       2940;
        matchTolerance  0.0001;
        myProcNo        0;
        neighbProcNo    2;
    }
)

// ************************************************************************* //
