/*--------------------------------*- C++ -*----------------------------------*\
  =========                 |
  \\      /  F ield         | OpenFOAM: The Open Source CFD Toolbox
   \\    /   O peration     | Website:  https://openfoam.org
    \\  /    A nd           | Version:  11
     \\/     M anipulation  |
\*---------------------------------------------------------------------------*/
FoamFile
{
    format      binary;
    class       polyBoundaryMesh;
    location    "0.002/polyMesh";
    object      boundary;
}
// * * * * * * * * * * * * * * * * * * * * * * * * * * * * * * * * * * * * * //

6
(
    bottom
    {
        type            wall;
        inGroups        List<word> 1(wall);
        nFaces          190;
        startFace       3101;
    }
    top
    {
        type            wall;
        inGroups        List<word> 1(wall);
        nFaces          200;
        startFace       3291;
    }
    sides
    {
        type            wall;
        inGroups        List<word> 1(wall);
        nFaces          228;
        startFace       3491;
    }
    internal
    {
        type            internal;
        inGroups        List<word> 1(internal);
        nFaces          0;
        startFace       3719;
    }
    procBoundary1to0
    {
        type            processor;
        inGroups        List<word> 1(processor);
        nFaces          68;
        startFace       3719;
        matchTolerance  0.0001;
        myProcNo        1;
        neighbProcNo    0;
    }
    procBoundary1to3
    {
        type            processor;
        inGroups        List<word> 1(processor);
        nFaces          102;
        startFace       3787;
        matchTolerance  0.0001;
        myProcNo        1;
        neighbProcNo    3;
    }
)

// ************************************************************************* //
