/*--------------------------------*- C++ -*----------------------------------*\
  =========                 |
  \\      /  F ield         | OpenFOAM: The Open Source CFD Toolbox
   \\    /   O peration     | Website:  https://openfoam.org
    \\  /    A nd           | Version:  11
     \\/     M anipulation  |
\*---------------------------------------------------------------------------*/
FoamFile
{
    format      binary;
    class       polyBoundaryMesh;
    location    "0.001/polyMesh";
    object      boundary;
}
// * * * * * * * * * * * * * * * * * * * * * * * * * * * * * * * * * * * * * //

5
(
    bottom
    {
        type            wall;
        inGroups        List<word> 1(wall);
        nFaces          201;
        startFace       3226;
    }
    top
    {
        type            wall;
        inGroups        List<word> 1(wall);
        nFaces          200;
        startFace       3427;
    }
    sides
    {
        type            wall;
        inGroups        List<word> 1(wall);
        nFaces          302;
        startFace       3627;
    }
    internal
    {
        type            internal;
        inGroups        List<word> 1(internal);
        nFaces          0;
        startFace       3929;
    }
    procBoundary2to3
    {
        type            processor;
        inGroups        List<word> 1(processor);
        nFaces          69;
        startFace       3929;
        matchTolerance  0.0001;
        myProcNo        2;
        neighbProcNo    3;
    }
)

// ************************************************************************* //
