/*--------------------------------*- C++ -*----------------------------------*\
  =========                 |
  \\      /  F ield         | OpenFOAM: The Open Source CFD Toolbox
   \\    /   O peration     | Website:  https://openfoam.org
    \\  /    A nd           | Version:  11
     \\/     M anipulation  |
\*---------------------------------------------------------------------------*/
FoamFile
{
    format      binary;
    class       polyBoundaryMesh;
    location    "constant/polyMesh";
    object      boundary;
}
// * * * * * * * * * * * * * * * * * * * * * * * * * * * * * * * * * * * * * //

6
(
    bottom
    {
        type            wall;
        inGroups        List<word> 1(wall);
        nFaces          150;
        startFace       2340;
    }
    top
    {
        type            wall;
        inGroups        List<word> 1(wall);
        nFaces          150;
        startFace       2490;
    }
    sides
    {
        type            wall;
        inGroups        List<word> 1(wall);
        nFaces          210;
        startFace       2640;
    }
    internal
    {
        type            internal;
        inGroups        List<word> 1(internal);
        nFaces          0;
        startFace       2850;
    }
    procBoundary0to1
    {
        type            processor;
        inGroups        List<word> 1(processor);
        nFaces          30;
        startFace       2850;
        matchTolerance  0.0001;
        myProcNo        0;
        neighbProcNo    1;
    }
    procBoundary0to2
    {
        type            processor;
        inGroups        List<word> 1(processor);
        nFaces          180;
        startFace       2880;
        matchTolerance  0.0001;
        myProcNo        0;
        neighbProcNo    2;
    }
)

// ************************************************************************* //
