/*--------------------------------*- C++ -*----------------------------------*\
  =========                 |
  \\      /  F ield         | OpenFOAM: The Open Source CFD Toolbox
   \\    /   O peration     | Website:  https://openfoam.org
    \\  /    A nd           | Version:  11
     \\/     M anipulation  |
\*---------------------------------------------------------------------------*/
FoamFile
{
    format      binary;
    class       polyBoundaryMesh;
    location    "0.0005/polyMesh";
    object      boundary;
}
// * * * * * * * * * * * * * * * * * * * * * * * * * * * * * * * * * * * * * //

4
(
    bottom
    {
        type            wall;
        inGroups        List<word> 1(wall);
        nFaces          600;
        startFace       13686;
    }
    top
    {
        type            wall;
        inGroups        List<word> 1(wall);
        nFaces          930;
        startFace       14286;
    }
    sides
    {
        type            wall;
        inGroups        List<word> 1(wall);
        nFaces          840;
        startFace       15216;
    }
    internal
    {
        type            internal;
        inGroups        List<word> 1(internal);
        nFaces          0;
        startFace       16056;
    }
)

// ************************************************************************* //
